* NGSPICE file created from tt_um_algofoogle_vgaringosc_parax.ext - technology: gf180mcuD

.subckt tt_um_algofoogle_vgaringosc_parax VGND VPWR clk ena rst_n ui_in[0] ui_in[1]
+ ui_in[2] ui_in[3] ui_in[4] ui_in[5] ui_in[6] ui_in[7] uio_in[0] uio_in[1] uio_in[2]
+ uio_in[3] uio_in[4] uio_in[5] uio_in[6] uio_in[7] uio_oe[0] uio_oe[1] uio_oe[2]
+ uio_oe[3] uio_oe[4] uio_oe[5] uio_oe[6] uio_oe[7] uio_out[0] uio_out[1] uio_out[2]
+ uio_out[3] uio_out[4] uio_out[5] uio_out[6] uio_out[7] uo_out[0] uo_out[1] uo_out[2]
+ uo_out[3] uo_out[4] uo_out[5] uo_out[6] uo_out[7]
X0 VPWR.t1209 a_66204_5863# a_66116_5960# VPWR.t1208 pfet_06v0 ad=0.5368p pd=3.32u as=0.5368p ps=3.32u w=1.22u l=1u
X1 a_33948_16839# a_33860_16936# VGND.t1133 VGND.t1132 nfet_06v0 ad=0.3608p pd=2.52u as=0.3608p ps=2.52u w=0.82u l=1u
X2 VPWR.t319 a_42236_2727# a_42148_2824# VPWR.t318 pfet_06v0 ad=0.5368p pd=3.32u as=0.5368p ps=3.32u w=1.22u l=1u
X3 VPWR.t236 a_44296_24393.t14 clkbuf_1_0__f_clk.I.t15 VPWR.t235 pfet_06v0 ad=0.3782p pd=1.84u as=0.3782p ps=1.84u w=1.22u l=0.5u
X4 a_43600_22504# _304_.ZN.t10 VGND.t235 VGND.t234 nfet_06v0 ad=0.1722p pd=1.24u as=0.2132p ps=1.34u w=0.82u l=0.6u
X5 VPWR.t321 a_9635_30644# uio_oe[5].t0 VPWR.t320 pfet_06v0 ad=0.5368p pd=3.32u as=0.5368p ps=3.32u w=1.22u l=0.5u
X6 a_35224_23705# a_33376_23659# a_34939_23705# VPWR.t1913 pfet_06v0 ad=50.4f pd=0.64u as=0.1665p ps=1.285u w=0.36u l=0.5u
X7 VPWR.t552 a_59484_9432# a_59396_9476# VPWR.t551 pfet_06v0 ad=0.5368p pd=3.32u as=0.5368p ps=3.32u w=1.22u l=1u
X8 VPWR.t5245 a_66204_2727# a_66116_2824# VPWR.t5244 pfet_06v0 ad=0.5368p pd=3.32u as=0.5368p ps=3.32u w=1.22u l=1u
X9 a_44812_19369# _325_.ZN a_43888_19204# VGND.t326 nfet_06v0 ad=43.2f pd=0.6u as=0.207p ps=1.51u w=0.36u l=0.6u
X10 a_55228_20408# a_55140_20452# VGND.t5390 VGND.t5389 nfet_06v0 ad=0.3608p pd=2.52u as=0.3608p ps=2.52u w=0.82u l=1u
X11 a_2364_27815# a_2276_27912# VGND.t5767 VGND.t4204 nfet_06v0 ad=0.3608p pd=2.52u as=0.3608p ps=2.52u w=0.82u l=1u
X12 _332_.Z a_40244_18180# VPWR.t899 VPWR.t898 pfet_06v0 ad=0.5346p pd=3.31u as=0.4268p ps=2.175u w=1.215u l=0.5u
X13 _324_.C.t7 a_65072_29860# VGND.t1063 VGND.t1059 nfet_06v0 ad=0.1183p pd=0.975u as=0.23432p ps=1.94u w=0.455u l=0.6u
X14 VPWR.t1018 a_41564_1592# a_41476_1636# VPWR.t1017 pfet_06v0 ad=0.5368p pd=3.32u as=0.5368p ps=3.32u w=1.22u l=1u
X15 VPWR.t351 a_3260_30951# a_3172_31048# VPWR.t350 pfet_06v0 ad=0.5368p pd=3.32u as=0.5368p ps=3.32u w=1.22u l=1u
X16 VPWR.t5161 _473_.Q a_47860_21640# VPWR.t5160 pfet_06v0 ad=0.5346p pd=3.31u as=0.44955p ps=1.955u w=1.215u l=0.5u
X17 a_28054_30196# _359_.B.t2 VGND.t6465 VGND.t71 nfet_06v0 ad=0.3608p pd=2.52u as=0.2911p ps=1.53u w=0.82u l=0.6u
X18 a_27328_25227# a_26916_25640.t2 VPWR.t6740 VPWR.t6739 pfet_06v0 ad=0.3806p pd=2.61u as=0.2249p ps=1.385u w=0.865u l=0.5u
X19 uo_out[6].t11 _287_.A1.t8 VGND.t6478 VGND.t6477 nfet_06v0 ad=0.1469p pd=1.085u as=0.1469p ps=1.085u w=0.565u l=0.6u
X20 VPWR.t840 a_65532_1592# a_65444_1636# VPWR.t839 pfet_06v0 ad=0.5368p pd=3.32u as=0.5368p ps=3.32u w=1.22u l=1u
X21 VPWR.t1100 a_16028_1592# a_15940_1636# VPWR.t1099 pfet_06v0 ad=0.5368p pd=3.32u as=0.5368p ps=3.32u w=1.22u l=1u
X22 _416_.ZN _416_.A2 VGND.t6026 VGND.t6025 nfet_06v0 ad=0.1209p pd=0.985u as=0.1209p ps=0.985u w=0.465u l=0.6u
X23 VPWR.t6734 _268_.A1.t2 a_53212_29816# VPWR.t6733 pfet_06v0 ad=0.264p pd=2.08u as=0.156p ps=1.12u w=0.6u l=0.5u
X24 a_66540_19975# a_66452_20072# VGND.t876 VGND.t875 nfet_06v0 ad=0.3608p pd=2.52u as=0.3608p ps=2.52u w=0.82u l=1u
X25 VPWR.t6743 _474_.CLK.t32 a_48384_26724# VPWR.t6742 pfet_06v0 ad=0.428p pd=2.02u as=0.2542p ps=1.44u w=0.82u l=0.5u
X26 a_15244_28248# a_15156_28292# VGND.t1380 VGND.t1379 nfet_06v0 ad=0.3608p pd=2.52u as=0.3608p ps=2.52u w=0.82u l=1u
X27 VPWR.t976 a_47164_13703# a_47076_13800# VPWR.t975 pfet_06v0 ad=0.5368p pd=3.32u as=0.5368p ps=3.32u w=1.22u l=1u
X28 a_48529_22460# _473_.Q VGND.t4998 VGND.t4997 nfet_06v0 ad=93.59999f pd=0.88u as=0.2288p ps=1.58u w=0.36u l=0.6u
X29 a_1916_2727# a_1828_2824# VGND.t4702 VGND.t1224 nfet_06v0 ad=0.3608p pd=2.52u as=0.3608p ps=2.52u w=0.82u l=1u
X30 VPWR.t364 a_48956_18407# a_48868_18504# VPWR.t363 pfet_06v0 ad=0.5368p pd=3.32u as=0.5368p ps=3.32u w=1.22u l=1u
X31 a_55340_19975# a_55252_20072# VGND.t773 VGND.t772 nfet_06v0 ad=0.3608p pd=2.52u as=0.3608p ps=2.52u w=0.82u l=1u
X32 a_63516_19975# a_63428_20072# VGND.t2843 VGND.t2842 nfet_06v0 ad=0.3608p pd=2.52u as=0.3608p ps=2.52u w=0.82u l=1u
X33 VPWR.t3638 _346_.A2 a_21268_27912# VPWR.t3637 pfet_06v0 ad=0.5978p pd=3.42u as=0.3172p ps=1.74u w=1.22u l=0.5u
X34 a_48956_2727# a_48868_2824# VGND.t1355 VGND.t1354 nfet_06v0 ad=0.3608p pd=2.52u as=0.3608p ps=2.52u w=0.82u l=1u
X35 a_49764_26724# _402_.A1.t4 VGND.t6427 VGND.t6426 nfet_06v0 ad=0.14p pd=1.1u as=0.104p ps=0.92u w=0.4u l=0.6u
X36 _421_.A1 _324_.B.t20 VPWR.t6707 VPWR.t6706 pfet_06v0 ad=0.5368p pd=3.32u as=0.5368p ps=3.32u w=1.22u l=0.5u
X37 VGND.t951 _435_.A3 _435_.ZN VGND.t950 nfet_06v0 ad=93.59999f pd=0.88u as=93.59999f ps=0.88u w=0.36u l=0.6u
X38 a_1020_24679# a_932_24776# VGND.t767 VGND.t766 nfet_06v0 ad=0.3608p pd=2.52u as=0.3608p ps=2.52u w=0.82u l=1u
X39 VGND.t828 vgaringosc.tapped_ring.c11_inv_array\[10\]_pdkinv_notouch_.ZN vgaringosc.tapped_ring.c11_inv_array\[11\]_pdkinv_notouch_.ZN VGND.t827 nfet_06v0 ad=0.3608p pd=2.52u as=0.2255p ps=1.37u w=0.82u l=0.6u
X40 a_48308_23588# _279_.Z a_49764_23588# VPWR.t5589 pfet_06v0 ad=0.5016p pd=3.16u as=0.3534p ps=1.76u w=1.14u l=0.5u
X41 VPWR.t905 vgaringosc.tapped_ring.c11_inv_array\[14\]_pdkinv_notouch_.ZN vgaringosc.tapped_ring.c11_inv_array\[15\]_pdkinv_notouch_.ZN VPWR.t904 pfet_06v0 ad=0.5368p pd=3.32u as=0.4575p ps=1.97u w=1.22u l=0.5u
X42 a_44252_30951# a_44164_31048# VGND.t1385 VGND.t34 nfet_06v0 ad=0.3608p pd=2.52u as=0.3608p ps=2.52u w=0.82u l=1u
X43 a_2812_29383# a_2724_29480# VGND.t459 VGND.t458 nfet_06v0 ad=0.3608p pd=2.52u as=0.3608p ps=2.52u w=0.82u l=1u
X44 VGND.t5051 vgaringosc.ro_inv4.inv_array_notouch_\[3\].I vgaringosc.ro_inv4.inv_array_notouch_\[3\].ZN VGND.t5050 nfet_06v0 ad=0.3608p pd=2.52u as=0.2132p ps=1.34u w=0.82u l=0.6u
X45 vgaringosc.tapped_ring.c13_inv_array\[39\]_pdkinv_notouch_.ZN vgaringosc.tapped_ring.c13_inv_array\[39\]_pdkinv_notouch_.I VPWR.t1127 VPWR.t1126 pfet_06v0 ad=0.4575p pd=1.97u as=0.5368p ps=3.32u w=1.22u l=0.5u
X46 VPWR.t1433 a_67996_2727# a_67908_2824# VPWR.t1432 pfet_06v0 ad=0.5368p pd=3.32u as=0.5368p ps=3.32u w=1.22u l=1u
X47 VPWR.t5045 a_59372_14136# a_59284_14180# VPWR.t4307 pfet_06v0 ad=0.5368p pd=3.32u as=0.5368p ps=3.32u w=1.22u l=1u
X48 vgaringosc.tapped_ring.c13_inv_array\[15\]_pdkinv_notouch_.ZN vgaringosc.tapped_ring.c13_inv_array\[14\]_pdkinv_notouch_.ZN VPWR.t3000 VPWR.t2999 pfet_06v0 ad=0.4575p pd=1.97u as=0.5368p ps=3.32u w=1.22u l=0.5u
X49 VGND.t1191 _399_.ZN a_50940_24072# VGND.t1190 nfet_06v0 ad=0.3608p pd=2.52u as=0.1312p ps=1.14u w=0.82u l=0.6u
X50 VPWR.t2996 a_49628_15704# a_49540_15748# VPWR.t2995 pfet_06v0 ad=0.5368p pd=3.32u as=0.5368p ps=3.32u w=1.22u l=1u
X51 a_1020_21543# a_932_21640# VGND.t4976 VGND.t3839 nfet_06v0 ad=0.3608p pd=2.52u as=0.3608p ps=2.52u w=0.82u l=1u
X52 VPWR.t313 a_62732_16839# a_62644_16936# VPWR.t312 pfet_06v0 ad=0.5368p pd=3.32u as=0.5368p ps=3.32u w=1.22u l=1u
X53 VGND.t6479 _287_.A1.t9 uo_out[2].t7 VGND.t146 nfet_06v0 ad=0.1469p pd=1.085u as=0.1469p ps=1.085u w=0.565u l=0.6u
X54 a_67100_9432# a_67012_9476# VGND.t4475 VGND.t4474 nfet_06v0 ad=0.3608p pd=2.52u as=0.3608p ps=2.52u w=0.82u l=1u
X55 vgaringosc.tapped_ring.c13_inv_array\[26\]_pdkinv_notouch_.I vgaringosc.tapped_ring.c13_inv_array\[25\]_pdkinv_notouch_.I VPWR.t6005 VPWR.t6004 pfet_06v0 ad=0.4575p pd=1.97u as=0.5368p ps=3.32u w=1.22u l=0.5u
X56 a_66428_14136# a_66340_14180# VGND.t5024 VGND.t5023 nfet_06v0 ad=0.3608p pd=2.52u as=0.3608p ps=2.52u w=0.82u l=1u
X57 VPWR.t5979 a_56348_14136# a_56260_14180# VPWR.t5978 pfet_06v0 ad=0.5368p pd=3.32u as=0.5368p ps=3.32u w=1.22u l=1u
X58 vgaringosc.tapped_ring.c13_inv_array\[29\]_pdkinv_notouch_.I vgaringosc.tapped_ring.c13_inv_array\[28\]_pdkinv_notouch_.I VGND.t4975 VGND.t4974 nfet_06v0 ad=0.2255p pd=1.37u as=0.3608p ps=2.52u w=0.82u l=0.6u
X59 VGND.t5786 a_35008_22461# a_34960_22505# VGND.t5785 nfet_06v0 ad=0.142p pd=1.14u as=43.2f ps=0.6u w=0.36u l=0.6u
X60 VPWR.t3639 a_1020_6296# a_932_6340# VPWR.t2610 pfet_06v0 ad=0.5368p pd=3.32u as=0.5368p ps=3.32u w=1.22u l=1u
X61 VGND.t1078 _237_.A1 a_60401_30300# VGND.t1077 nfet_06v0 ad=0.1584p pd=1.6u as=93.59999f ps=0.88u w=0.36u l=0.6u
X62 a_67100_6296# a_67012_6340# VGND.t1117 VGND.t1116 nfet_06v0 ad=0.3608p pd=2.52u as=0.3608p ps=2.52u w=0.82u l=1u
X63 a_41048_29816.t3 vgaringosc.workerclkbuff_notouch_.I.t4 VPWR.t6699 VPWR.t6698 pfet_06v0 ad=0.2952p pd=1.54u as=0.2132p ps=1.34u w=0.82u l=0.5u
X64 a_66428_11000# a_66340_11044# VGND.t1357 VGND.t1356 nfet_06v0 ad=0.3608p pd=2.52u as=0.3608p ps=2.52u w=0.82u l=1u
X65 VPWR.t5995 a_56348_11000# a_56260_11044# VPWR.t5994 pfet_06v0 ad=0.5368p pd=3.32u as=0.5368p ps=3.32u w=1.22u l=1u
X66 VPWR.t1460 a_1468_4295# a_1380_4392# VPWR.t1459 pfet_06v0 ad=0.5368p pd=3.32u as=0.5368p ps=3.32u w=1.22u l=1u
X67 a_32476_29167# _461_.D a_32308_29167# VGND.t835 nfet_06v0 ad=0.207p pd=1.51u as=43.2f ps=0.6u w=0.36u l=0.6u
X68 VGND.t6382 _355_.C.t4 _346_.B VGND.t6381 nfet_06v0 ad=0.2112p pd=1.84u as=0.2112p ps=1.84u w=0.48u l=0.6u
X69 VPWR.t4287 a_1020_3160# a_932_3204# VPWR.t3076 pfet_06v0 ad=0.5368p pd=3.32u as=0.5368p ps=3.32u w=1.22u l=1u
X70 VPWR.t1392 a_47612_12135# a_47524_12232# VPWR.t1391 pfet_06v0 ad=0.5368p pd=3.32u as=0.5368p ps=3.32u w=1.22u l=1u
X71 _252_.ZN _251_.ZN VGND.t1115 VGND.t1114 nfet_06v0 ad=0.2046p pd=1.81u as=0.1209p ps=0.985u w=0.465u l=0.6u
X72 VGND.t5728 a_52415_31220# a_52891_30644# VGND.t45 nfet_06v0 ad=0.28262p pd=1.87u as=43.8f ps=0.605u w=0.365u l=0.6u
X73 VPWR.t1470 a_1468_1159# a_1380_1256# VPWR.t1364 pfet_06v0 ad=0.5368p pd=3.32u as=0.5368p ps=3.32u w=1.22u l=1u
X74 VPWR.t894 a_16588_21543# a_16500_21640# VPWR.t893 pfet_06v0 ad=0.5368p pd=3.32u as=0.5368p ps=3.32u w=1.22u l=1u
X75 a_39985_24372# _260_.A2 a_39781_24372# VGND.t6024 nfet_06v0 ad=0.1517p pd=1.19u as=0.1722p ps=1.24u w=0.82u l=0.6u
X76 a_45148_2727# a_45060_2824# VGND.t3518 VGND.t3517 nfet_06v0 ad=0.3608p pd=2.52u as=0.3608p ps=2.52u w=0.82u l=1u
X77 VPWR.t1164 a_35292_30951# a_35204_31048# VPWR.t1163 pfet_06v0 ad=0.5368p pd=3.32u as=0.5368p ps=3.32u w=1.22u l=1u
X78 VPWR.t5145 _337_.ZN a_31964_28292# VPWR.t5144 pfet_06v0 ad=0.3766p pd=1.815u as=0.4599p ps=1.935u w=1.095u l=0.5u
X79 a_43192_25640# _284_.B a_42168_25640.t8 VGND.t5394 nfet_06v0 ad=0.1312p pd=1.14u as=0.2132p ps=1.34u w=0.82u l=0.6u
X80 a_49628_9432# a_49540_9476# VGND.t500 VGND.t499 nfet_06v0 ad=0.3608p pd=2.52u as=0.3608p ps=2.52u w=0.82u l=1u
X81 VPWR.t984 a_62172_17272# a_62084_17316# VPWR.t983 pfet_06v0 ad=0.5368p pd=3.32u as=0.5368p ps=3.32u w=1.22u l=1u
X82 VGND.t6344 _230_.I.t2 a_60059_28776# VGND.t6343 nfet_06v0 ad=0.3608p pd=2.52u as=0.1312p ps=1.14u w=0.82u l=0.6u
X83 VPWR.t1600 a_19948_27815# a_19860_27912# VPWR.t1599 pfet_06v0 ad=0.5368p pd=3.32u as=0.5368p ps=3.32u w=1.22u l=1u
X84 VPWR.t846 a_64188_2727# a_64100_2824# VPWR.t845 pfet_06v0 ad=0.5368p pd=3.32u as=0.5368p ps=3.32u w=1.22u l=1u
X85 a_43192_22504# _302_.Z a_42168_22504# VGND.t4847 nfet_06v0 ad=0.1312p pd=1.14u as=0.2132p ps=1.34u w=0.82u l=0.6u
X86 a_65308_15704# a_65220_15748# VGND.t4141 VGND.t4140 nfet_06v0 ad=0.3608p pd=2.52u as=0.3608p ps=2.52u w=0.82u l=1u
X87 a_37386_31048# _350_.A1.t2 _296_.ZN VPWR.t6621 pfet_06v0 ad=0.4087p pd=1.89u as=0.5368p ps=3.32u w=1.22u l=0.5u
X88 VGND.t6354 _452_.CLK.t32 a_36548_27591.t1 VGND.t6353 nfet_06v0 ad=0.1053p pd=0.925u as=0.1782p ps=1.69u w=0.405u l=0.6u
X89 VGND.t1106 _373_.A2 _373_.ZN VGND.t1105 nfet_06v0 ad=0.2486p pd=2.01u as=0.1469p ps=1.085u w=0.565u l=0.6u
X90 VPWR.t787 a_50412_18407# a_50324_18504# VPWR.t786 pfet_06v0 ad=0.5368p pd=3.32u as=0.5368p ps=3.32u w=1.22u l=1u
X91 a_55452_21543# a_55364_21640# VGND.t5987 VGND.t5986 nfet_06v0 ad=0.3608p pd=2.52u as=0.3608p ps=2.52u w=0.82u l=1u
X92 a_33500_17272# a_33412_17316# VGND.t977 VGND.t976 nfet_06v0 ad=0.3608p pd=2.52u as=0.3608p ps=2.52u w=0.82u l=1u
X93 a_50940_24072# _324_.C.t8 _424_.B1.t4 VGND.t6497 nfet_06v0 ad=0.1312p pd=1.14u as=0.2132p ps=1.34u w=0.82u l=0.6u
X94 a_38529_22804# _304_.A1.t2 a_38325_22804# VGND.t6314 nfet_06v0 ad=0.1517p pd=1.19u as=0.1722p ps=1.24u w=0.82u l=0.6u
X95 VPWR.t1594 a_20956_24679# a_20868_24776# VPWR.t1593 pfet_06v0 ad=0.5368p pd=3.32u as=0.5368p ps=3.32u w=1.22u l=1u
X96 a_57020_23111# a_56932_23208# VGND.t5509 VGND.t5508 nfet_06v0 ad=0.3608p pd=2.52u as=0.3608p ps=2.52u w=0.82u l=1u
X97 a_41048_29816.t6 vgaringosc.workerclkbuff_notouch_.I.t5 VGND.t6410 VGND.t6409 nfet_06v0 ad=0.1053p pd=0.925u as=0.1053p ps=0.925u w=0.405u l=0.6u
X98 a_54864_22461.t0 _474_.CLK.t33 VPWR.t6745 VPWR.t6744 pfet_06v0 ad=0.3806p pd=2.61u as=0.2249p ps=1.385u w=0.865u l=0.5u
X99 VPWR.t503 a_53996_25112# a_53908_25156# VPWR.t502 pfet_06v0 ad=0.5368p pd=3.32u as=0.5368p ps=3.32u w=1.22u l=1u
X100 a_43254_21236# a_42778_21812# a_42982_21730# VGND.t4895 nfet_06v0 ad=43.2f pd=0.6u as=0.369p ps=2.77u w=0.36u l=0.6u
X101 VGND.t5388 _279_.Z _399_.A2 VGND.t5387 nfet_06v0 ad=0.2266p pd=1.91u as=0.1339p ps=1.035u w=0.515u l=0.6u
X102 _300_.ZN _447_.Q.t2 a_39333_20936# VGND.t6300 nfet_06v0 ad=0.3608p pd=2.52u as=0.1312p ps=1.14u w=0.82u l=0.6u
X103 VPWR.t5635 a_4828_30951# a_4740_31048# VPWR.t5634 pfet_06v0 ad=0.5368p pd=3.32u as=0.5368p ps=3.32u w=1.22u l=1u
X104 a_22344_26399# a_20496_26344# a_22059_26399# VPWR.t4818 pfet_06v0 ad=50.4f pd=0.64u as=0.1665p ps=1.285u w=0.36u l=0.5u
X105 a_2364_7864# a_2276_7908# VGND.t608 VGND.t607 nfet_06v0 ad=0.3608p pd=2.52u as=0.3608p ps=2.52u w=0.82u l=1u
X106 a_45372_13703# a_45284_13800# VGND.t614 VGND.t613 nfet_06v0 ad=0.3608p pd=2.52u as=0.3608p ps=2.52u w=0.82u l=1u
X107 a_37888_27555# a_37516_27599# VPWR.t911 VPWR.t910 pfet_06v0 ad=0.1791p pd=1.355u as=0.1044p ps=0.94u w=0.36u l=0.5u
X108 VPWR.t961 _300_.A2 a_38576_22504# VPWR.t960 pfet_06v0 ad=0.156p pd=1.12u as=0.156p ps=1.12u w=0.6u l=0.5u
X109 a_52884_18884# _424_.A1 _424_.ZN VPWR.t305 pfet_06v0 ad=0.3172p pd=1.74u as=0.3782p ps=1.84u w=1.22u l=0.5u
X110 a_12444_29383# a_12356_29480# VGND.t4107 VGND.t4106 nfet_06v0 ad=0.3608p pd=2.52u as=0.3608p ps=2.52u w=0.82u l=1u
X111 _350_.A2.t7 _337_.ZN a_30388_28776# VGND.t4980 nfet_06v0 ad=0.30965p pd=1.685u as=0.3608p ps=2.52u w=0.82u l=0.6u
X112 a_2364_4728# a_2276_4772# VGND.t449 VGND.t448 nfet_06v0 ad=0.3608p pd=2.52u as=0.3608p ps=2.52u w=0.82u l=1u
X113 a_66316_12135# a_66228_12232# VGND.t1175 VGND.t1174 nfet_06v0 ad=0.3608p pd=2.52u as=0.3608p ps=2.52u w=0.82u l=1u
X114 VPWR.t3755 _267_.A2 _258_.I VPWR.t3754 pfet_06v0 ad=0.2561p pd=1.505u as=0.44325p ps=2.87u w=0.985u l=0.5u
X115 VGND.t306 _424_.A1 a_51240_20452# VGND.t305 nfet_06v0 ad=0.218p pd=1.52u as=93.59999f ps=0.88u w=0.36u l=0.6u
X116 VPWR.t2498 a_59260_23111# a_59172_23208# VPWR.t2497 pfet_06v0 ad=0.5368p pd=3.32u as=0.5368p ps=3.32u w=1.22u l=1u
X117 a_56516_26344# a_55956_25940# a_56388_25940# VGND.t2374 nfet_06v0 ad=0.2132p pd=1.34u as=0.1968p ps=1.3u w=0.82u l=0.6u
X118 a_18380_23544# a_18292_23588# VGND.t3390 VGND.t3389 nfet_06v0 ad=0.3608p pd=2.52u as=0.3608p ps=2.52u w=0.82u l=1u
X119 a_55116_12135# a_55028_12232# VGND.t4892 VGND.t4891 nfet_06v0 ad=0.3608p pd=2.52u as=0.3608p ps=2.52u w=0.82u l=1u
X120 VPWR.t1115 a_30812_1159# a_30724_1256# VPWR.t1114 pfet_06v0 ad=0.5368p pd=3.32u as=0.5368p ps=3.32u w=1.22u l=1u
X121 VGND.t1256 _397_.A4 a_46171_27508# VGND.t1255 nfet_06v0 ad=0.3608p pd=2.52u as=0.1312p ps=1.14u w=0.82u l=0.6u
X122 VPWR.t6543 a_48272_25156.t14 _474_.CLK.t0 VPWR.t6542 pfet_06v0 ad=0.3782p pd=1.84u as=0.3782p ps=1.84u w=1.22u l=0.5u
X123 VGND.t2870 a_48384_26724# clkload0.Z VGND.t2869 nfet_06v0 ad=0.1183p pd=0.975u as=0.1183p ps=0.975u w=0.455u l=0.6u
X124 a_65756_4295# a_65668_4392# VGND.t465 VGND.t464 nfet_06v0 ad=0.3608p pd=2.52u as=0.3608p ps=2.52u w=0.82u l=1u
X125 a_60276_29032# _252_.ZN VGND.t6009 VGND.t6008 nfet_06v0 ad=0.14p pd=1.1u as=0.224p ps=1.52u w=0.4u l=0.6u
X126 VPWR.t331 a_23532_23544# a_23444_23588# VPWR.t330 pfet_06v0 ad=0.5368p pd=3.32u as=0.5368p ps=3.32u w=1.22u l=1u
X127 a_38340_21327# _301_.A1 VPWR.t3352 VPWR.t3351 pfet_06v0 ad=0.156p pd=1.12u as=0.264p ps=2.08u w=0.6u l=0.5u
X128 a_35140_26680# _362_.B.t4 VPWR.t6526 VPWR.t6525 pfet_06v0 ad=0.2354p pd=1.95u as=0.1391p ps=1.055u w=0.535u l=0.5u
X129 a_32916_29860# _359_.B.t3 _461_.D VPWR.t6768 pfet_06v0 ad=0.3782p pd=1.84u as=0.5368p ps=3.32u w=1.22u l=0.5u
X130 VPWR.t317 a_2364_20408# a_2276_20452# VPWR.t316 pfet_06v0 ad=0.5368p pd=3.32u as=0.5368p ps=3.32u w=1.22u l=1u
X131 VPWR.t5837 a_64412_7431# a_64324_7528# VPWR.t2340 pfet_06v0 ad=0.5368p pd=3.32u as=0.5368p ps=3.32u w=1.22u l=1u
X132 VPWR.t692 a_63740_9432# a_63652_9476# VPWR.t691 pfet_06v0 ad=0.5368p pd=3.32u as=0.5368p ps=3.32u w=1.22u l=1u
X133 VPWR.t3080 a_49180_15271# a_49092_15368# VPWR.t1806 pfet_06v0 ad=0.5368p pd=3.32u as=0.5368p ps=3.32u w=1.22u l=1u
X134 a_43620_29167# a_42820_29159.t2 VGND.t6727 VGND.t6726 nfet_06v0 ad=43.2f pd=0.6u as=0.1584p ps=1.6u w=0.36u l=0.6u
X135 VPWR.t909 _395_.A1 a_49044_28292# VPWR.t908 pfet_06v0 ad=0.5368p pd=3.32u as=0.3172p ps=1.74u w=1.22u l=0.5u
X136 a_3708_13703# a_3620_13800# VGND.t783 VGND.t782 nfet_06v0 ad=0.3608p pd=2.52u as=0.3608p ps=2.52u w=0.82u l=1u
X137 _355_.C.t3 a_28054_30196# VGND.t868 VGND.t71 nfet_06v0 ad=0.2132p pd=1.34u as=0.3608p ps=2.52u w=0.82u l=0.6u
X138 VGND.t6330 _424_.B1.t6 a_50068_27508# VGND.t6329 nfet_06v0 ad=0.2132p pd=1.34u as=0.2132p ps=1.34u w=0.82u l=0.6u
X139 a_20284_1592# a_20196_1636# VGND.t3083 VGND.t3082 nfet_06v0 ad=0.3608p pd=2.52u as=0.3608p ps=2.52u w=0.82u l=1u
X140 a_46624_19715# a_46252_19759# VGND.t1821 VGND.t1820 nfet_06v0 ad=93.59999f pd=0.88u as=0.2637p ps=1.825u w=0.36u l=0.6u
X141 _371_.ZN _371_.A1.t8 VGND.t6230 VGND.t6229 nfet_06v0 ad=0.2046p pd=1.81u as=0.1209p ps=0.985u w=0.465u l=0.6u
X142 a_44252_1592# a_44164_1636# VGND.t1177 VGND.t1176 nfet_06v0 ad=0.3608p pd=2.52u as=0.3608p ps=2.52u w=0.82u l=1u
X143 a_47636_25940# _397_.A2.t4 _284_.B VGND.t6716 nfet_06v0 ad=0.2132p pd=1.34u as=0.30965p ps=1.685u w=0.82u l=0.6u
X144 uo_out[0].t4 _284_.ZN.t20 a_40196_31048# VPWR.t6514 pfet_06v0 ad=0.4392p pd=1.94u as=0.3172p ps=1.74u w=1.22u l=0.5u
X145 a_16588_27815# a_16500_27912# VGND.t451 VGND.t450 nfet_06v0 ad=0.3608p pd=2.52u as=0.3608p ps=2.52u w=0.82u l=1u
X146 a_50532_24072# _399_.ZN VGND.t1189 VGND.t1188 nfet_06v0 ad=0.1312p pd=1.14u as=0.3608p ps=2.52u w=0.82u l=0.6u
X147 a_42996_18840# a_43440_19325.t2 a_43392_19369# VGND.t6188 nfet_06v0 ad=93.59999f pd=0.88u as=43.2f ps=0.6u w=0.36u l=0.6u
X148 VPWR.t327 a_44364_17272# a_44276_17316# VPWR.t326 pfet_06v0 ad=0.5368p pd=3.32u as=0.5368p ps=3.32u w=1.22u l=1u
X149 _459_.CLK.t15 a_41048_29816.t7 VGND.t6401 VGND.t6400 nfet_06v0 ad=0.1118p pd=0.95u as=0.1118p ps=0.95u w=0.43u l=0.6u
X150 VPWR.t785 a_22748_2727# a_22660_2824# VPWR.t784 pfet_06v0 ad=0.5368p pd=3.32u as=0.5368p ps=3.32u w=1.22u l=1u
X151 _459_.CLK.t7 a_41048_29816.t8 VPWR.t6683 VPWR.t6682 pfet_06v0 ad=0.4392p pd=1.94u as=0.3172p ps=1.74u w=1.22u l=0.5u
X152 VPWR.t1327 _397_.A4 a_47636_23588# VPWR.t1326 pfet_06v0 ad=0.389p pd=2.02u as=0.1736p ps=1.18u w=0.56u l=0.5u
X153 VPWR.t461 a_36544_24419# a_36516_24831# VPWR.t460 pfet_06v0 ad=0.1044p pd=0.94u as=43.2f ps=0.6u w=0.36u l=0.5u
X154 a_59955_30600# a_60285_30600# a_60405_30644# VGND.t45 nfet_06v0 ad=0.3705p pd=2.77u as=43.8f ps=0.605u w=0.365u l=0.6u
X155 VPWR.t5130 a_46716_2727# a_46628_2824# VPWR.t5129 pfet_06v0 ad=0.5368p pd=3.32u as=0.5368p ps=3.32u w=1.22u l=1u
X156 a_1916_26680# a_1828_26724# VGND.t1261 VGND.t1260 nfet_06v0 ad=0.3608p pd=2.52u as=0.3608p ps=2.52u w=0.82u l=1u
X157 VPWR.t6642 _452_.CLK.t33 a_45284_19751.t0 VPWR.t6641 pfet_06v0 ad=0.2249p pd=1.385u as=0.3806p ps=2.61u w=0.865u l=0.5u
X158 VPWR.t6465 _459_.CLK.t16 a_23668_25640.t0 VPWR.t6464 pfet_06v0 ad=0.2249p pd=1.385u as=0.3806p ps=2.61u w=0.865u l=0.5u
X159 a_3708_1592# a_3620_1636# VGND.t5768 VGND.t2952 nfet_06v0 ad=0.3608p pd=2.52u as=0.3608p ps=2.52u w=0.82u l=1u
X160 a_61052_26247# a_60964_26344# VGND.t478 VGND.t477 nfet_06v0 ad=0.3608p pd=2.52u as=0.3608p ps=2.52u w=0.82u l=1u
X161 VPWR.t694 a_2364_14136# a_2276_14180# VPWR.t693 pfet_06v0 ad=0.5368p pd=3.32u as=0.5368p ps=3.32u w=1.22u l=1u
X162 VPWR.t1254 a_32604_18407# a_32516_18504# VPWR.t1253 pfet_06v0 ad=0.5368p pd=3.32u as=0.5368p ps=3.32u w=1.22u l=1u
X163 a_48396_16839# a_48308_16936# VGND.t1581 VGND.t1580 nfet_06v0 ad=0.3608p pd=2.52u as=0.3608p ps=2.52u w=0.82u l=1u
X164 VGND.t1810 a_47776_20893# a_47728_20937# VGND.t1809 nfet_06v0 ad=0.142p pd=1.14u as=43.2f ps=0.6u w=0.36u l=0.6u
X165 VPWR.t1353 a_2364_11000# a_2276_11044# VPWR.t1352 pfet_06v0 ad=0.5368p pd=3.32u as=0.5368p ps=3.32u w=1.22u l=1u
X166 a_15244_24679# a_15156_24776# VGND.t1250 VGND.t1249 nfet_06v0 ad=0.3608p pd=2.52u as=0.3608p ps=2.52u w=0.82u l=1u
X167 a_62844_27815# a_62756_27912# VGND.t2372 VGND.t2371 nfet_06v0 ad=0.3608p pd=2.52u as=0.3608p ps=2.52u w=0.82u l=1u
X168 VPWR.t753 vgaringosc.tapped_ring.c12_inv_array\[17\]_pdkinv_notouch_.I vgaringosc.tapped_ring.c12_inv_array\[18\]_pdkinv_notouch_.I VPWR.t752 pfet_06v0 ad=0.5368p pd=3.32u as=0.4575p ps=1.97u w=1.22u l=0.5u
X169 a_15244_21543# a_15156_21640# VGND.t5729 VGND.t1041 nfet_06v0 ad=0.3608p pd=2.52u as=0.3608p ps=2.52u w=0.82u l=1u
X170 a_15692_28248# a_15604_28292# VGND.t300 VGND.t299 nfet_06v0 ad=0.3608p pd=2.52u as=0.3608p ps=2.52u w=0.82u l=1u
X171 VPWR.t5830 a_52764_1159# a_52676_1256# VPWR.t5829 pfet_06v0 ad=0.5368p pd=3.32u as=0.5368p ps=3.32u w=1.22u l=1u
X172 a_62172_15271# a_62084_15368# VGND.t704 VGND.t703 nfet_06v0 ad=0.3608p pd=2.52u as=0.3608p ps=2.52u w=0.82u l=1u
X173 a_29680_26724# _371_.A3 VPWR.t982 VPWR.t981 pfet_06v0 ad=0.4087p pd=1.89u as=0.5368p ps=3.32u w=1.22u l=0.5u
X174 VPWR.t792 a_2364_7864# a_2276_7908# VPWR.t791 pfet_06v0 ad=0.5368p pd=3.32u as=0.5368p ps=3.32u w=1.22u l=1u
X175 a_62763_28776# _251_.A1.t8 _250_.ZN VGND.t6685 nfet_06v0 ad=85.2f pd=0.95u as=0.21175p ps=1.41u w=0.71u l=0.6u
X176 a_63964_19975# a_63876_20072# VGND.t1067 VGND.t49 nfet_06v0 ad=0.3608p pd=2.52u as=0.3608p ps=2.52u w=0.82u l=1u
X177 vgaringosc.tapped_ring.c13_inv_array\[41\]_pdkinv_notouch_.ZN vgaringosc.tapped_ring.c13_inv_array\[40\]_pdkinv_notouch_.ZN VGND.t1071 VGND.t1070 nfet_06v0 ad=0.2255p pd=1.37u as=0.3608p ps=2.52u w=0.82u l=0.6u
X178 a_35140_26680# _358_.A3 VPWR.t481 VPWR.t480 pfet_06v0 ad=0.1391p pd=1.055u as=0.4268p ps=2.175u w=0.535u l=0.5u
X179 VGND.t4966 _438_.A2 _435_.ZN VGND.t4965 nfet_06v0 ad=0.1584p pd=1.6u as=93.59999f ps=0.88u w=0.36u l=0.6u
X180 a_48508_12135# a_48420_12232# VGND.t1815 VGND.t1814 nfet_06v0 ad=0.3608p pd=2.52u as=0.3608p ps=2.52u w=0.82u l=1u
X181 a_37308_15271# a_37220_15368# VGND.t308 VGND.t307 nfet_06v0 ad=0.3608p pd=2.52u as=0.3608p ps=2.52u w=0.82u l=1u
X182 VPWR.t2503 vgaringosc.tapped_ring.c13_inv_array\[5\]_pdkinv_notouch_.I vgaringosc.tapped_ring.c13_inv_array\[5\]_pdkinv_notouch_.ZN VPWR.t2502 pfet_06v0 ad=0.5368p pd=3.32u as=0.4575p ps=1.97u w=1.22u l=0.5u
X183 VPWR.t5999 _421_.A1 _400_.ZN VPWR.t5998 pfet_06v0 ad=0.4972p pd=3.14u as=0.2938p ps=1.65u w=1.13u l=0.5u
X184 a_64860_3160# a_64772_3204# VGND.t5611 VGND.t2960 nfet_06v0 ad=0.3608p pd=2.52u as=0.3608p ps=2.52u w=0.82u l=1u
X185 VPWR.t615 a_23920_27555# a_23912_27967# VPWR.t614 pfet_06v0 ad=0.23p pd=1.54u as=50.4f ps=0.64u w=0.36u l=0.5u
X186 a_47612_9432# a_47524_9476# VGND.t1288 VGND.t1287 nfet_06v0 ad=0.3608p pd=2.52u as=0.3608p ps=2.52u w=0.82u l=1u
X187 a_67100_2727# a_67012_2824# VGND.t685 VGND.t684 nfet_06v0 ad=0.3608p pd=2.52u as=0.3608p ps=2.52u w=0.82u l=1u
X188 a_59572_29076# _257_.B a_59348_29076# VGND.t317 nfet_06v0 ad=0.2132p pd=1.34u as=0.2132p ps=1.34u w=0.82u l=0.6u
X189 _247_.ZN _252_.B a_59380_27508# VGND.t771 nfet_06v0 ad=0.2569p pd=1.56u as=0.1312p ps=1.14u w=0.82u l=0.6u
X190 VPWR.t892 a_66204_4728# a_66116_4772# VPWR.t891 pfet_06v0 ad=0.5368p pd=3.32u as=0.5368p ps=3.32u w=1.22u l=1u
X191 a_66876_14136# a_66788_14180# VGND.t880 VGND.t879 nfet_06v0 ad=0.3608p pd=2.52u as=0.3608p ps=2.52u w=0.82u l=1u
X192 VPWR.t497 a_56796_14136# a_56708_14180# VPWR.t496 pfet_06v0 ad=0.5368p pd=3.32u as=0.5368p ps=3.32u w=1.22u l=1u
X193 VGND.t4860 _475_.Q a_48529_22460# VGND.t4859 nfet_06v0 ad=0.1584p pd=1.6u as=93.59999f ps=0.88u w=0.36u l=0.6u
X194 VPWR.t4995 a_27228_26247# a_27140_26344# VPWR.t4994 pfet_06v0 ad=0.5368p pd=3.32u as=0.5368p ps=3.32u w=1.22u l=1u
X195 a_36076_18407# a_35988_18504# VGND.t765 VGND.t764 nfet_06v0 ad=0.3608p pd=2.52u as=0.3608p ps=2.52u w=0.82u l=1u
X196 a_28891_25273# a_26916_25640.t3 a_28256_25597# VPWR.t6741 pfet_06v0 ad=0.1665p pd=1.285u as=0.1791p ps=1.355u w=0.36u l=0.5u
X197 VGND.t6194 _459_.CLK.t17 a_20084_26023.t1 VGND.t6193 nfet_06v0 ad=0.1053p pd=0.925u as=0.1782p ps=1.69u w=0.405u l=0.6u
X198 a_10204_29816# a_10116_29860# VGND.t2373 VGND.t71 nfet_06v0 ad=0.3608p pd=2.52u as=0.3608p ps=2.52u w=0.82u l=1u
X199 a_66876_11000# a_66788_11044# VGND.t1467 VGND.t1466 nfet_06v0 ad=0.3608p pd=2.52u as=0.3608p ps=2.52u w=0.82u l=1u
X200 VPWR.t1248 a_56796_11000# a_56708_11044# VPWR.t1247 pfet_06v0 ad=0.5368p pd=3.32u as=0.5368p ps=3.32u w=1.22u l=1u
X201 a_49988_21236# _424_.B1.t7 VGND.t6332 VGND.t6331 nfet_06v0 ad=0.2132p pd=1.34u as=0.2132p ps=1.34u w=0.82u l=0.6u
X202 VGND.t872 _397_.Z a_48908_24080# VGND.t871 nfet_06v0 ad=0.23325p pd=1.48u as=93.59999f ps=1.02u w=0.78u l=0.6u
X203 a_40644_29480# _284_.ZN.t21 uo_out[1].t1 VPWR.t6515 pfet_06v0 ad=0.3172p pd=1.74u as=0.4392p ps=1.94u w=1.22u l=0.5u
X204 a_39212_16839# a_39124_16936# VGND.t1393 VGND.t1392 nfet_06v0 ad=0.3608p pd=2.52u as=0.3608p ps=2.52u w=0.82u l=1u
X205 a_41996_28777# _265_.ZN a_41872_28409# VPWR.t299 pfet_06v0 ad=0.1872p pd=1.4u as=54f ps=0.66u w=0.36u l=0.5u
X206 VGND.t1506 vgaringosc.tapped_ring.c06_inv_array\[0\]_pdkinv_notouch_.I a_60524_25640# VGND.t1505 nfet_06v0 ad=0.2132p pd=1.34u as=98.39999f ps=1.06u w=0.82u l=0.6u
X207 VPWR.t800 _223_.ZN _350_.A2.t3 VPWR.t799 pfet_06v0 ad=0.2561p pd=1.505u as=0.2561p ps=1.505u w=0.985u l=0.5u
X208 VPWR.t1336 a_47164_12568# a_47076_12612# VPWR.t1335 pfet_06v0 ad=0.5368p pd=3.32u as=0.5368p ps=3.32u w=1.22u l=1u
X209 a_38971_18559# a_37408_18504# a_38336_18147# VGND.t1755 nfet_06v0 ad=93.59999f pd=0.88u as=93.59999f ps=0.88u w=0.36u l=0.6u
X210 VPWR.t238 a_44296_24393.t15 clkbuf_1_0__f_clk.I.t14 VPWR.t237 pfet_06v0 ad=0.3782p pd=1.84u as=0.3782p ps=1.84u w=1.22u l=0.5u
X211 a_30388_28776# _335_.ZN.t20 a_33720_28776# VGND.t6677 nfet_06v0 ad=0.3608p pd=2.52u as=0.1312p ps=1.14u w=0.82u l=0.6u
X212 VGND.t5708 _285_.Z _296_.ZN VGND.t102 nfet_06v0 ad=0.2486p pd=2.01u as=0.1469p ps=1.085u w=0.565u l=0.6u
X213 a_19388_2727# a_19300_2824# VGND.t5709 VGND.t1943 nfet_06v0 ad=0.3608p pd=2.52u as=0.3608p ps=2.52u w=0.82u l=1u
X214 _371_.A3 _336_.Z VPWR.t4562 VPWR.t4561 pfet_06v0 ad=0.2561p pd=1.505u as=0.4334p ps=2.85u w=0.985u l=0.5u
X215 VPWR.t3643 a_67996_4728# a_67908_4772# VPWR.t3642 pfet_06v0 ad=0.5368p pd=3.32u as=0.5368p ps=3.32u w=1.22u l=1u
X216 a_65756_15704# a_65668_15748# VGND.t398 VGND.t397 nfet_06v0 ad=0.3608p pd=2.52u as=0.3608p ps=2.52u w=0.82u l=1u
X217 VPWR.t2994 a_50860_18407# a_50772_18504# VPWR.t2993 pfet_06v0 ad=0.5368p pd=3.32u as=0.5368p ps=3.32u w=1.22u l=1u
X218 _248_.B1 vgaringosc.tapped_ring.c09_inv_array\[7\]_pdkinv_notouch_.I VGND.t4224 VGND.t4223 nfet_06v0 ad=0.2255p pd=1.37u as=0.3608p ps=2.52u w=0.82u l=0.6u
X219 a_47636_25940# _381_.A2.t2 _284_.B VGND.t6648 nfet_06v0 ad=0.3608p pd=2.52u as=0.30965p ps=1.685u w=0.82u l=0.6u
X220 a_51868_9432# a_51780_9476# VGND.t4503 VGND.t4502 nfet_06v0 ad=0.3608p pd=2.52u as=0.3608p ps=2.52u w=0.82u l=1u
X221 a_27172_24328# _352_.A2.t16 a_27552_24397# VGND.t6665 nfet_06v0 ad=0.1584p pd=1.6u as=57.59999f ps=0.68u w=0.36u l=0.6u
X222 VPWR.t1045 a_47612_14136# a_47524_14180# VPWR.t1044 pfet_06v0 ad=0.5368p pd=3.32u as=0.5368p ps=3.32u w=1.22u l=1u
X223 VPWR.t4777 a_9084_2727# a_8996_2824# VPWR.t4776 pfet_06v0 ad=0.5368p pd=3.32u as=0.5368p ps=3.32u w=1.22u l=1u
X224 a_32156_15704# a_32068_15748# VGND.t2878 VGND.t2877 nfet_06v0 ad=0.3608p pd=2.52u as=0.3608p ps=2.52u w=0.82u l=1u
X225 a_30932_26020# _459_.Q.t2 a_30724_26020# VGND.t6649 nfet_06v0 ad=60.8f pd=0.7u as=0.1672p ps=1.64u w=0.38u l=0.6u
X226 a_67548_3160# a_67460_3204# VGND.t3524 VGND.t3523 nfet_06v0 ad=0.3608p pd=2.52u as=0.3608p ps=2.52u w=0.82u l=1u
X227 VPWR.t1053 a_47612_11000# a_47524_11044# VPWR.t1052 pfet_06v0 ad=0.5368p pd=3.32u as=0.5368p ps=3.32u w=1.22u l=1u
X228 VPWR.t5013 a_41048_17341# a_42404_17433# VPWR.t5012 pfet_06v0 ad=0.4554p pd=3.25u as=54f ps=0.66u w=0.36u l=0.5u
X229 a_12892_29383# a_12804_29480# VGND.t1149 VGND.t1148 nfet_06v0 ad=0.3608p pd=2.52u as=0.3608p ps=2.52u w=0.82u l=1u
X230 a_26668_20408# a_26580_20452# VGND.t2872 VGND.t2871 nfet_06v0 ad=0.3608p pd=2.52u as=0.3608p ps=2.52u w=0.82u l=1u
X231 VPWR.t4339 a_16588_20408# a_16500_20452# VPWR.t4338 pfet_06v0 ad=0.5368p pd=3.32u as=0.5368p ps=3.32u w=1.22u l=1u
X232 vgaringosc.tapped_ring.c11_inv_array\[8\]_pdkinv_notouch_.ZN vgaringosc.tapped_ring.c11_inv_array\[8\]_pdkinv_notouch_.I VPWR.t5623 VPWR.t5622 pfet_06v0 ad=0.4575p pd=1.97u as=0.5368p ps=3.32u w=1.22u l=0.5u
X233 a_66764_12135# a_66676_12232# VGND.t979 VGND.t978 nfet_06v0 ad=0.3608p pd=2.52u as=0.3608p ps=2.52u w=0.82u l=1u
X234 a_65084_2727# a_64996_2824# VGND.t565 VGND.t564 nfet_06v0 ad=0.3608p pd=2.52u as=0.3608p ps=2.52u w=0.82u l=1u
X235 VPWR.t5508 a_52988_26680# a_52900_26724# VPWR.t5507 pfet_06v0 ad=0.5368p pd=3.32u as=0.5368p ps=3.32u w=1.22u l=1u
X236 VGND.t6636 _452_.Q.t4 a_42084_24072# VGND.t6635 nfet_06v0 ad=0.226p pd=1.515u as=88.2f ps=0.84u w=0.42u l=0.6u
X237 a_24512_25273# a_24080_25227# VPWR.t4423 VPWR.t4422 pfet_06v0 ad=54f pd=0.66u as=0.4554p ps=3.25u w=0.36u l=0.5u
X238 a_55564_12135# a_55476_12232# VGND.t5247 VGND.t5246 nfet_06v0 ad=0.3608p pd=2.52u as=0.3608p ps=2.52u w=0.82u l=1u